@<TRIPOS>MOLECULE
LIG
   29    30     1     0     0
SMALL
bcc


@<TRIPOS>ATOM
      1 C           15.0720    10.5550    -1.7980 cc        11 LIG       0.132400
      2 C1          16.3650    10.1180    -2.1210 cd        11 LIG      -0.348200
      3 C2          17.2880     9.8630    -1.1090 c         11 LIG       0.686700
      4 O           18.4510     9.4770    -1.4100 o         11 LIG      -0.632500
      5 N           16.9280    10.0430     0.1960 n         11 LIG      -0.203800
      6 C3          17.8800     9.7920     1.2780 c3        11 LIG       0.095300
      7 N1          15.6910    10.4370     0.5080 nd        11 LIG      -0.390300
      8 C4          14.7410    10.6900    -0.4320 cc        11 LIG       0.340200
      9 C5          13.3890    11.0690     0.0320 ca        11 LIG      -0.117900
     10 C6          13.0680    12.4240     0.2160 ca        11 LIG      -0.109000
     11 C7          11.8040    12.7910     0.6870 ca        11 LIG      -0.134500
     12 C8          10.8570    11.8090     0.9910 ca        11 LIG      -0.121000
     13 C9          11.1760    10.4580     0.8320 ca        11 LIG      -0.134500
     14 C10         12.4390    10.0860     0.3610 ca        11 LIG      -0.109000
     15 N2          14.1330    10.9160    -2.8330 nh        11 LIG      -0.750000
     16 C11         14.1410    10.3240    -4.1670 c3        11 LIG       0.189100
     17 H           16.6330     9.9850    -3.1090 ha        11 LIG       0.166000
     18 H1          18.8180     9.4860     0.8640 h1        11 LIG       0.060700
     19 H2          17.5020     9.0190     1.9140 h1        11 LIG       0.060700
     20 H3          18.0170    10.6870     1.8480 h1        11 LIG       0.060700
     21 H4          13.7680    13.1520     0.0030 ha        11 LIG       0.144000
     22 H5          11.5700    13.7880     0.8100 ha        11 LIG       0.136000
     23 H6           9.9220    12.0820     1.3330 ha        11 LIG       0.134000
     24 H7          10.4780     9.7330     1.0630 ha        11 LIG       0.136000
     25 H8          12.6750     9.0870     0.2550 ha        11 LIG       0.144000
     26 H9          13.4520    11.5970    -2.6290 hn        11 LIG       0.432800
     27 H10         14.9330     9.6070    -4.2340 h1        11 LIG       0.044033
     28 H11         14.2920    11.0920    -4.8970 h1        11 LIG       0.044033
     29 H12         13.2050     9.8390    -4.3480 h1        11 LIG       0.044033
@<TRIPOS>BOND
     1     1     2 2   
     2     1     8 1   
     3     1    15 1   
     4     2     3 1   
     5     2    17 1   
     6     3     4 2   
     7     3     5 1   
     8     5     6 1   
     9     5     7 1   
    10     6    18 1   
    11     6    19 1   
    12     6    20 1   
    13     7     8 2   
    14     8     9 1   
    15     9    10 ar  
    16     9    14 ar  
    17    10    11 ar  
    18    10    21 1   
    19    11    12 ar  
    20    11    22 1   
    21    12    13 ar  
    22    12    23 1   
    23    13    14 ar  
    24    13    24 1   
    25    14    25 1   
    26    15    16 1   
    27    15    26 1   
    28    16    27 1   
    29    16    28 1   
    30    16    29 1   
@<TRIPOS>SUBSTRUCTURE
     1 LIG         1 TEMP              0 ****  ****    0 ROOT
